MODEL 1
REMARK VINA RESULT:      -7.4      0.000      0.000
REMARK  Name = 
REMARK  7 active torsions:
REMARK  status: ('A' for Active; 'I' for Inactive)
REMARK    1  A    between atoms: O_2  and  C_3
REMARK    2  A    between atoms: C_3  and  C_5
REMARK    3  A    between atoms: C_10  and  N_11
REMARK    4  A    between atoms: C_12  and  C_14
REMARK    5  A    between atoms: C_14  and  C_15
REMARK    6  A    between atoms: C_17  and  C_18
REMARK    7  A    between atoms: C_21  and  C_22
REMARK                            x       y       z     vdW  Elec       q    Type
REMARK                         _______ _______ _______ _____ _____    ______ ____
ROOT
ATOM      1  N   UNL     1      52.391  -0.510  81.199  0.00  0.00    +0.000 NA
ATOM      2  C   UNL     1      51.632   0.353  80.368  0.00  0.00    +0.000 C 
ATOM      3  O   UNL     1      51.665   0.123  79.109  0.00  0.00    +0.000 OA
ENDROOT
BRANCH   1   9
ATOM      4  C   UNL     1      54.505  -1.413  80.436  0.00  0.00    +0.000 A 
ATOM      5  C   UNL     1      55.268  -2.448  79.898  0.00  0.00    +0.000 A 
ATOM      6  C   UNL     1      54.692  -3.652  79.572  0.00  0.00    +0.000 A 
ATOM      7  C   UNL     1      53.339  -3.808  79.793  0.00  0.00    +0.000 A 
ATOM      8  C   UNL     1      52.559  -2.801  80.326  0.00  0.00    +0.000 A 
ATOM      9  C   UNL     1      53.163  -1.592  80.646  0.00  0.00    +0.000 A 
BRANCH   4  10
ATOM     10  C   UNL     1      55.127  -0.148  80.781  0.00  0.00    +0.000 C 
ATOM     11  O   UNL     1      55.331   0.689  79.851  0.00  0.00    +0.000 OA
BRANCH  10  13
ATOM     12  C   UNL     1      55.952  -0.811  82.973  0.00  0.00    +0.000 C 
ATOM     13  O   UNL     1      55.509   0.193  82.068  0.00  0.00    +0.000 OA
ENDBRANCH  10  13
ENDBRANCH   4  10
ENDBRANCH   1   9
BRANCH   2  14
ATOM     14  C   UNL     1      50.829   1.471  80.850  0.00  0.00    +0.000 C 
ATOM     15  C   UNL     1      51.445   2.509  81.370  0.00  0.00    +0.000 C 
BRANCH  15  16
ATOM     16  C   UNL     1      50.731   3.681  81.881  0.00  0.00    +0.000 A 
ATOM     17  C   UNL     1      50.328   4.639  80.981  0.00  0.00    +0.000 A 
ATOM     18  C   UNL     1      49.646   5.769  81.362  0.00  0.00    +0.000 A 
ATOM     19  C   UNL     1      49.366   5.929  82.701  0.00  0.00    +0.000 A 
ATOM     20  C   UNL     1      49.764   4.979  83.609  0.00  0.00    +0.000 A 
ATOM     21  C   UNL     1      50.441   3.864  83.204  0.00  0.00    +0.000 A 
BRANCH  19  22
ATOM     22  C   UNL     1      48.636   7.125  83.173  0.00  0.00    +0.000 C 
ATOM     23  C   UNL     1      48.016   6.851  84.539  0.00  0.00    +0.000 C 
ATOM     24  C   UNL     1      47.440   7.375  82.242  0.00  0.00    +0.000 C 
ENDBRANCH  19  22
ENDBRANCH  15  16
BRANCH  14  25
ATOM     25  C   UNL     1      49.401   1.444  80.769  0.00  0.00    +0.000 C 
ATOM     26  N   UNL     1      48.222   1.422  80.726  0.00  0.00    +0.000 NA
ENDBRANCH  14  25
ENDBRANCH   2  14
TORSDOF 7
ENDMDL
MODEL 2
REMARK VINA RESULT:      -7.2      1.599      2.776
REMARK  Name = 
REMARK  7 active torsions:
REMARK  status: ('A' for Active; 'I' for Inactive)
REMARK    1  A    between atoms: O_2  and  C_3
REMARK    2  A    between atoms: C_3  and  C_5
REMARK    3  A    between atoms: C_10  and  N_11
REMARK    4  A    between atoms: C_12  and  C_14
REMARK    5  A    between atoms: C_14  and  C_15
REMARK    6  A    between atoms: C_17  and  C_18
REMARK    7  A    between atoms: C_21  and  C_22
REMARK                            x       y       z     vdW  Elec       q    Type
REMARK                         _______ _______ _______ _____ _____    ______ ____
ROOT
ATOM      1  N   UNL     1      53.422  -0.302  80.061  0.00  0.00    +0.000 NA
ATOM      2  C   UNL     1      52.548  -0.020  81.141  0.00  0.00    +0.000 C 
ATOM      3  O   UNL     1      52.601  -0.805  82.150  0.00  0.00    +0.000 OA
ENDROOT
BRANCH   1   9
ATOM      4  C   UNL     1      53.961  -2.594  79.494  0.00  0.00    +0.000 A 
ATOM      5  C   UNL     1      54.820  -3.691  79.527  0.00  0.00    +0.000 A 
ATOM      6  C   UNL     1      56.035  -3.615  80.165  0.00  0.00    +0.000 A 
ATOM      7  C   UNL     1      56.380  -2.424  80.770  0.00  0.00    +0.000 A 
ATOM      8  C   UNL     1      55.550  -1.321  80.752  0.00  0.00    +0.000 A 
ATOM      9  C   UNL     1      54.326  -1.422  80.102  0.00  0.00    +0.000 A 
BRANCH   4  10
ATOM     10  C   UNL     1      52.682  -2.687  78.813  0.00  0.00    +0.000 C 
ATOM     11  O   UNL     1      52.667  -2.557  77.552  0.00  0.00    +0.000 OA
BRANCH  10  13
ATOM     12  C   UNL     1      51.196  -4.186  80.025  0.00  0.00    +0.000 C 
ATOM     13  O   UNL     1      51.482  -2.910  79.466  0.00  0.00    +0.000 OA
ENDBRANCH  10  13
ENDBRANCH   4  10
ENDBRANCH   1   9
BRANCH   2  14
ATOM     14  C   UNL     1      51.603   1.090  81.173  0.00  0.00    +0.000 C 
ATOM     15  C   UNL     1      52.010   2.248  81.642  0.00  0.00    +0.000 C 
BRANCH  15  16
ATOM     16  C   UNL     1      51.141   3.425  81.716  0.00  0.00    +0.000 A 
ATOM     17  C   UNL     1      50.592   3.750  82.934  0.00  0.00    +0.000 A 
ATOM     18  C   UNL     1      49.772   4.838  83.107  0.00  0.00    +0.000 A 
ATOM     19  C   UNL     1      49.500   5.618  82.005  0.00  0.00    +0.000 A 
ATOM     20  C   UNL     1      50.042   5.302  80.783  0.00  0.00    +0.000 A 
ATOM     21  C   UNL     1      50.855   4.215  80.639  0.00  0.00    +0.000 A 
BRANCH  19  22
ATOM     22  C   UNL     1      48.622   6.801  82.127  0.00  0.00    +0.000 C 
ATOM     23  C   UNL     1      47.168   6.360  82.257  0.00  0.00    +0.000 C 
ATOM     24  C   UNL     1      48.675   7.596  80.814  0.00  0.00    +0.000 C 
ENDBRANCH  19  22
ENDBRANCH  15  16
BRANCH  14  25
ATOM     25  C   UNL     1      50.258   0.930  80.713  0.00  0.00    +0.000 C 
ATOM     26  N   UNL     1      49.151   0.818  80.321  0.00  0.00    +0.000 NA
ENDBRANCH  14  25
ENDBRANCH   2  14
TORSDOF 7
ENDMDL
MODEL 3
REMARK VINA RESULT:      -7.0      1.115      1.775
REMARK  Name = 
REMARK  7 active torsions:
REMARK  status: ('A' for Active; 'I' for Inactive)
REMARK    1  A    between atoms: O_2  and  C_3
REMARK    2  A    between atoms: C_3  and  C_5
REMARK    3  A    between atoms: C_10  and  N_11
REMARK    4  A    between atoms: C_12  and  C_14
REMARK    5  A    between atoms: C_14  and  C_15
REMARK    6  A    between atoms: C_17  and  C_18
REMARK    7  A    between atoms: C_21  and  C_22
REMARK                            x       y       z     vdW  Elec       q    Type
REMARK                         _______ _______ _______ _____ _____    ______ ____
ROOT
ATOM      1  N   UNL     1      52.886  -0.494  79.816  0.00  0.00    +0.000 NA
ATOM      2  C   UNL     1      52.218  -0.108  81.006  0.00  0.00    +0.000 C 
ATOM      3  O   UNL     1      52.401  -0.843  82.038  0.00  0.00    +0.000 OA
ENDROOT
BRANCH   1   9
ATOM      4  C   UNL     1      55.061  -1.529  80.067  0.00  0.00    +0.000 A 
ATOM      5  C   UNL     1      55.895  -2.646  80.029  0.00  0.00    +0.000 A 
ATOM      6  C   UNL     1      55.397  -3.884  79.703  0.00  0.00    +0.000 A 
ATOM      7  C   UNL     1      54.052  -3.992  79.415  0.00  0.00    +0.000 A 
ATOM      8  C   UNL     1      53.204  -2.904  79.445  0.00  0.00    +0.000 A 
ATOM      9  C   UNL     1      53.729  -1.661  79.777  0.00  0.00    +0.000 A 
BRANCH   4  10
ATOM     10  C   UNL     1      55.599  -0.227  80.418  0.00  0.00    +0.000 C 
ATOM     11  O   UNL     1      55.638   0.092  81.644  0.00  0.00    +0.000 OA
BRANCH  10  13
ATOM     12  C   UNL     1      55.974   0.400  78.096  0.00  0.00    +0.000 C 
ATOM     13  O   UNL     1      56.071   0.682  79.487  0.00  0.00    +0.000 OA
ENDBRANCH  10  13
ENDBRANCH   4  10
ENDBRANCH   1   9
BRANCH   2  14
ATOM     14  C   UNL     1      51.347   1.055  81.125  0.00  0.00    +0.000 C 
ATOM     15  C   UNL     1      51.848   2.169  81.609  0.00  0.00    +0.000 C 
BRANCH  15  16
ATOM     16  C   UNL     1      51.057   3.392  81.769  0.00  0.00    +0.000 A 
ATOM     17  C   UNL     1      50.656   3.744  83.035  0.00  0.00    +0.000 A 
ATOM     18  C   UNL     1      49.919   4.875  83.288  0.00  0.00    +0.000 A 
ATOM     19  C   UNL     1      49.580   5.672  82.217  0.00  0.00    +0.000 A 
ATOM     20  C   UNL     1      49.974   5.329  80.947  0.00  0.00    +0.000 A 
ATOM     21  C   UNL     1      50.706   4.199  80.723  0.00  0.00    +0.000 A 
BRANCH  19  22
ATOM     22  C   UNL     1      48.786   6.902  82.425  0.00  0.00    +0.000 C 
ATOM     23  C   UNL     1      48.354   7.002  83.884  0.00  0.00    +0.000 C 
ATOM     24  C   UNL     1      47.474   6.786  81.634  0.00  0.00    +0.000 C 
ENDBRANCH  19  22
ENDBRANCH  15  16
BRANCH  14  25
ATOM     25  C   UNL     1      49.972   0.992  80.733  0.00  0.00    +0.000 C 
ATOM     26  N   UNL     1      48.832   0.951  80.430  0.00  0.00    +0.000 NA
ENDBRANCH  14  25
ENDBRANCH   2  14
TORSDOF 7
ENDMDL
MODEL 4
REMARK VINA RESULT:      -6.9      2.431      8.713
REMARK  Name = 
REMARK  7 active torsions:
REMARK  status: ('A' for Active; 'I' for Inactive)
REMARK    1  A    between atoms: O_2  and  C_3
REMARK    2  A    between atoms: C_3  and  C_5
REMARK    3  A    between atoms: C_10  and  N_11
REMARK    4  A    between atoms: C_12  and  C_14
REMARK    5  A    between atoms: C_14  and  C_15
REMARK    6  A    between atoms: C_17  and  C_18
REMARK    7  A    between atoms: C_21  and  C_22
REMARK                            x       y       z     vdW  Elec       q    Type
REMARK                         _______ _______ _______ _____ _____    ______ ____
ROOT
ATOM      1  N   UNL     1      51.614   2.358  81.186  0.00  0.00    +0.000 NA
ATOM      2  C   UNL     1      50.951   1.122  80.983  0.00  0.00    +0.000 C 
ATOM      3  O   UNL     1      49.671   1.140  81.002  0.00  0.00    +0.000 OA
ENDROOT
BRANCH   1   9
ATOM      4  C   UNL     1      50.521   4.341  80.327  0.00  0.00    +0.000 A 
ATOM      5  C   UNL     1      49.811   5.525  80.519  0.00  0.00    +0.000 A 
ATOM      6  C   UNL     1      49.461   5.939  81.781  0.00  0.00    +0.000 A 
ATOM      7  C   UNL     1      49.830   5.151  82.852  0.00  0.00    +0.000 A 
ATOM      8  C   UNL     1      50.533   3.973  82.691  0.00  0.00    +0.000 A 
ATOM      9  C   UNL     1      50.877   3.576  81.406  0.00  0.00    +0.000 A 
BRANCH   4  10
ATOM     10  C   UNL     1      50.880   3.913  78.987  0.00  0.00    +0.000 C 
ATOM     11  O   UNL     1      51.964   4.345  78.493  0.00  0.00    +0.000 OA
BRANCH  10  13
ATOM     12  C   UNL     1      50.718   2.111  77.358  0.00  0.00    +0.000 C 
ATOM     13  O   UNL     1      50.103   3.059  78.222  0.00  0.00    +0.000 OA
ENDBRANCH  10  13
ENDBRANCH   4  10
ENDBRANCH   1   9
BRANCH   2  14
ATOM     14  C   UNL     1      51.625  -0.152  80.758  0.00  0.00    +0.000 C 
ATOM     15  C   UNL     1      51.202  -0.924  79.783  0.00  0.00    +0.000 C 
BRANCH  15  16
ATOM     16  C   UNL     1      51.811  -2.220  79.475  0.00  0.00    +0.000 A 
ATOM     17  C   UNL     1      51.292  -3.340  80.079  0.00  0.00    +0.000 A 
ATOM     18  C   UNL     1      51.789  -4.600  79.849  0.00  0.00    +0.000 A 
ATOM     19  C   UNL     1      52.848  -4.722  78.977  0.00  0.00    +0.000 A 
ATOM     20  C   UNL     1      53.376  -3.610  78.369  0.00  0.00    +0.000 A 
ATOM     21  C   UNL     1      52.863  -2.369  78.615  0.00  0.00    +0.000 A 
BRANCH  19  22
ATOM     22  C   UNL     1      53.427  -6.052  78.690  0.00  0.00    +0.000 C 
ATOM     23  C   UNL     1      53.544  -6.858  79.979  0.00  0.00    +0.000 C 
ATOM     24  C   UNL     1      54.875  -5.869  78.209  0.00  0.00    +0.000 C 
ENDBRANCH  19  22
ENDBRANCH  15  16
BRANCH  14  25
ATOM     25  C   UNL     1      52.721  -0.564  81.582  0.00  0.00    +0.000 C 
ATOM     26  N   UNL     1      53.625  -0.881  82.270  0.00  0.00    +0.000 NA
ENDBRANCH  14  25
ENDBRANCH   2  14
TORSDOF 7
ENDMDL
MODEL 5
REMARK VINA RESULT:      -6.8     30.876     34.448
REMARK  Name = 
REMARK  7 active torsions:
REMARK  status: ('A' for Active; 'I' for Inactive)
REMARK    1  A    between atoms: O_2  and  C_3
REMARK    2  A    between atoms: C_3  and  C_5
REMARK    3  A    between atoms: C_10  and  N_11
REMARK    4  A    between atoms: C_12  and  C_14
REMARK    5  A    between atoms: C_14  and  C_15
REMARK    6  A    between atoms: C_17  and  C_18
REMARK    7  A    between atoms: C_21  and  C_22
REMARK                            x       y       z     vdW  Elec       q    Type
REMARK                         _______ _______ _______ _____ _____    ______ ____
ROOT
ATOM      1  N   UNL     1      37.334  29.714  88.643  0.00  0.00    +0.000 NA
ATOM      2  C   UNL     1      36.963  31.076  88.504  0.00  0.00    +0.000 C 
ATOM      3  O   UNL     1      37.882  31.948  88.685  0.00  0.00    +0.000 OA
ENDROOT
BRANCH   1   9
ATOM      4  C   UNL     1      39.027  29.187  90.292  0.00  0.00    +0.000 A 
ATOM      5  C   UNL     1      40.330  28.826  90.634  0.00  0.00    +0.000 A 
ATOM      6  C   UNL     1      41.279  28.616  89.663  0.00  0.00    +0.000 A 
ATOM      7  C   UNL     1      40.908  28.771  88.343  0.00  0.00    +0.000 A 
ATOM      8  C   UNL     1      39.626  29.127  87.976  0.00  0.00    +0.000 A 
ATOM      9  C   UNL     1      38.683  29.336  88.975  0.00  0.00    +0.000 A 
BRANCH   4  10
ATOM     10  C   UNL     1      38.033  29.401  91.328  0.00  0.00    +0.000 C 
ATOM     11  O   UNL     1      37.348  28.406  91.713  0.00  0.00    +0.000 OA
BRANCH  10  13
ATOM     12  C   UNL     1      36.460  31.060  92.164  0.00  0.00    +0.000 C 
ATOM     13  O   UNL     1      37.793  30.632  91.916  0.00  0.00    +0.000 OA
ENDBRANCH  10  13
ENDBRANCH   4  10
ENDBRANCH   1   9
BRANCH   2  14
ATOM     14  C   UNL     1      35.620  31.538  88.174  0.00  0.00    +0.000 C 
ATOM     15  C   UNL     1      34.957  30.917  87.225  0.00  0.00    +0.000 C 
BRANCH  15  16
ATOM     16  C   UNL     1      33.604  31.304  86.819  0.00  0.00    +0.000 A 
ATOM     17  C   UNL     1      33.468  32.230  85.812  0.00  0.00    +0.000 A 
ATOM     18  C   UNL     1      32.242  32.650  85.357  0.00  0.00    +0.000 A 
ATOM     19  C   UNL     1      31.120  32.111  85.946  0.00  0.00    +0.000 A 
ATOM     20  C   UNL     1      31.244  31.186  86.953  0.00  0.00    +0.000 A 
ATOM     21  C   UNL     1      32.474  30.785  87.387  0.00  0.00    +0.000 A 
BRANCH  19  22
ATOM     22  C   UNL     1      29.772  32.525  85.500  0.00  0.00    +0.000 C 
ATOM     23  C   UNL     1      29.015  31.322  84.946  0.00  0.00    +0.000 C 
ATOM     24  C   UNL     1      29.916  33.481  84.306  0.00  0.00    +0.000 C 
ENDBRANCH  19  22
ENDBRANCH  15  16
BRANCH  14  25
ATOM     25  C   UNL     1      35.032  32.648  88.859  0.00  0.00    +0.000 C 
ATOM     26  N   UNL     1      34.558  33.558  89.443  0.00  0.00    +0.000 NA
ENDBRANCH  14  25
ENDBRANCH   2  14
TORSDOF 7
ENDMDL
MODEL 6
REMARK VINA RESULT:      -6.7      1.372      1.894
REMARK  Name = 
REMARK  7 active torsions:
REMARK  status: ('A' for Active; 'I' for Inactive)
REMARK    1  A    between atoms: O_2  and  C_3
REMARK    2  A    between atoms: C_3  and  C_5
REMARK    3  A    between atoms: C_10  and  N_11
REMARK    4  A    between atoms: C_12  and  C_14
REMARK    5  A    between atoms: C_14  and  C_15
REMARK    6  A    between atoms: C_17  and  C_18
REMARK    7  A    between atoms: C_21  and  C_22
REMARK                            x       y       z     vdW  Elec       q    Type
REMARK                         _______ _______ _______ _____ _____    ______ ____
ROOT
ATOM      1  N   UNL     1      53.291  -1.028  79.325  0.00  0.00    +0.000 NA
ATOM      2  C   UNL     1      52.164  -0.922  80.179  0.00  0.00    +0.000 C 
ATOM      3  O   UNL     1      51.802  -1.983  80.797  0.00  0.00    +0.000 OA
ENDROOT
BRANCH   1   9
ATOM      4  C   UNL     1      55.163  -2.474  79.844  0.00  0.00    +0.000 A 
ATOM      5  C   UNL     1      55.859  -3.673  79.697  0.00  0.00    +0.000 A 
ATOM      6  C   UNL     1      55.384  -4.665  78.873  0.00  0.00    +0.000 A 
ATOM      7  C   UNL     1      54.201  -4.443  78.198  0.00  0.00    +0.000 A 
ATOM      8  C   UNL     1      53.492  -3.265  78.326  0.00  0.00    +0.000 A 
ATOM      9  C   UNL     1      53.991  -2.276  79.163  0.00  0.00    +0.000 A 
BRANCH   4  10
ATOM     10  C   UNL     1      55.674  -1.436  80.722  0.00  0.00    +0.000 C 
ATOM     11  O   UNL     1      56.244  -0.435  80.193  0.00  0.00    +0.000 OA
BRANCH  10  13
ATOM     12  C   UNL     1      54.649  -0.636  82.779  0.00  0.00    +0.000 C 
ATOM     13  O   UNL     1      55.570  -1.482  82.102  0.00  0.00    +0.000 OA
ENDBRANCH  10  13
ENDBRANCH   4  10
ENDBRANCH   1   9
BRANCH   2  14
ATOM     14  C   UNL     1      51.401   0.302  80.394  0.00  0.00    +0.000 C 
ATOM     15  C   UNL     1      52.022   1.353  80.878  0.00  0.00    +0.000 C 
BRANCH  15  16
ATOM     16  C   UNL     1      51.347   2.629  81.129  0.00  0.00    +0.000 A 
ATOM     17  C   UNL     1      50.998   2.934  82.424  0.00  0.00    +0.000 A 
ATOM     18  C   UNL     1      50.369   4.108  82.760  0.00  0.00    +0.000 A 
ATOM     19  C   UNL     1      50.086   4.998  81.748  0.00  0.00    +0.000 A 
ATOM     20  C   UNL     1      50.429   4.703  80.452  0.00  0.00    +0.000 A 
ATOM     21  C   UNL     1      51.054   3.529  80.144  0.00  0.00    +0.000 A 
BRANCH  19  22
ATOM     22  C   UNL     1      49.410   6.278  82.048  0.00  0.00    +0.000 C 
ATOM     23  C   UNL     1      48.309   6.056  83.081  0.00  0.00    +0.000 C 
ATOM     24  C   UNL     1      48.674   6.757  80.788  0.00  0.00    +0.000 C 
ENDBRANCH  19  22
ENDBRANCH  15  16
BRANCH  14  25
ATOM     25  C   UNL     1      50.003   0.364  80.092  0.00  0.00    +0.000 C 
ATOM     26  N   UNL     1      48.851   0.439  79.848  0.00  0.00    +0.000 NA
ENDBRANCH  14  25
ENDBRANCH   2  14
TORSDOF 7
ENDMDL
MODEL 7
REMARK VINA RESULT:      -6.6      2.644      4.237
REMARK  Name = 
REMARK  7 active torsions:
REMARK  status: ('A' for Active; 'I' for Inactive)
REMARK    1  A    between atoms: O_2  and  C_3
REMARK    2  A    between atoms: C_3  and  C_5
REMARK    3  A    between atoms: C_10  and  N_11
REMARK    4  A    between atoms: C_12  and  C_14
REMARK    5  A    between atoms: C_14  and  C_15
REMARK    6  A    between atoms: C_17  and  C_18
REMARK    7  A    between atoms: C_21  and  C_22
REMARK                            x       y       z     vdW  Elec       q    Type
REMARK                         _______ _______ _______ _____ _____    ______ ____
ROOT
ATOM      1  N   UNL     1      52.880  -3.563  78.780  0.00  0.00    +0.000 NA
ATOM      2  C   UNL     1      53.404  -2.265  78.557  0.00  0.00    +0.000 C 
ATOM      3  O   UNL     1      54.555  -2.191  78.002  0.00  0.00    +0.000 OA
ENDROOT
BRANCH   1   9
ATOM      4  C   UNL     1      54.383  -5.378  79.339  0.00  0.00    +0.000 A 
ATOM      5  C   UNL     1      55.106  -6.518  78.990  0.00  0.00    +0.000 A 
ATOM      6  C   UNL     1      55.059  -7.015  77.710  0.00  0.00    +0.000 A 
ATOM      7  C   UNL     1      54.279  -6.358  76.782  0.00  0.00    +0.000 A 
ATOM      8  C   UNL     1      53.552  -5.228  77.100  0.00  0.00    +0.000 A 
ATOM      9  C   UNL     1      53.615  -4.742  78.400  0.00  0.00    +0.000 A 
BRANCH   4  10
ATOM     10  C   UNL     1      54.437  -4.866  80.697  0.00  0.00    +0.000 C 
ATOM     11  O   UNL     1      53.754  -5.458  81.585  0.00  0.00    +0.000 OA
BRANCH  10  13
ATOM     12  C   UNL     1      56.535  -3.636  80.619  0.00  0.00    +0.000 C 
ATOM     13  O   UNL     1      55.194  -3.769  81.071  0.00  0.00    +0.000 OA
ENDBRANCH  10  13
ENDBRANCH   4  10
ENDBRANCH   1   9
BRANCH   2  14
ATOM     14  C   UNL     1      52.724  -1.025  78.915  0.00  0.00    +0.000 C 
ATOM     15  C   UNL     1      52.186  -0.926  80.110  0.00  0.00    +0.000 C 
BRANCH  15  16
ATOM     16  C   UNL     1      51.483   0.275  80.566  0.00  0.00    +0.000 A 
ATOM     17  C   UNL     1      52.192   1.209  81.284  0.00  0.00    +0.000 A 
ATOM     18  C   UNL     1      51.623   2.370  81.748  0.00  0.00    +0.000 A 
ATOM     19  C   UNL     1      50.291   2.586  81.474  0.00  0.00    +0.000 A 
ATOM     20  C   UNL     1      49.573   1.659  80.759  0.00  0.00    +0.000 A 
ATOM     21  C   UNL     1      50.162   0.513  80.308  0.00  0.00    +0.000 A 
BRANCH  19  22
ATOM     22  C   UNL     1      49.622   3.816  81.948  0.00  0.00    +0.000 C 
ATOM     23  C   UNL     1      49.913   4.969  80.993  0.00  0.00    +0.000 C 
ATOM     24  C   UNL     1      50.256   4.243  83.282  0.00  0.00    +0.000 C 
ENDBRANCH  19  22
ENDBRANCH  15  16
BRANCH  14  25
ATOM     25  C   UNL     1      52.633   0.062  77.989  0.00  0.00    +0.000 C 
ATOM     26  N   UNL     1      52.576   0.950  77.214  0.00  0.00    +0.000 NA
ENDBRANCH  14  25
ENDBRANCH   2  14
TORSDOF 7
ENDMDL
MODEL 8
REMARK VINA RESULT:      -6.5     31.807     35.868
REMARK  Name = 
REMARK  7 active torsions:
REMARK  status: ('A' for Active; 'I' for Inactive)
REMARK    1  A    between atoms: O_2  and  C_3
REMARK    2  A    between atoms: C_3  and  C_5
REMARK    3  A    between atoms: C_10  and  N_11
REMARK    4  A    between atoms: C_12  and  C_14
REMARK    5  A    between atoms: C_14  and  C_15
REMARK    6  A    between atoms: C_17  and  C_18
REMARK    7  A    between atoms: C_21  and  C_22
REMARK                            x       y       z     vdW  Elec       q    Type
REMARK                         _______ _______ _______ _____ _____    ______ ____
ROOT
ATOM      1  N   UNL     1      31.667  30.676  86.491  0.00  0.00    +0.000 NA
ATOM      2  C   UNL     1      32.022  30.894  87.847  0.00  0.00    +0.000 C 
ATOM      3  O   UNL     1      31.076  31.204  88.652  0.00  0.00    +0.000 OA
ENDROOT
BRANCH   1   9
ATOM      4  C   UNL     1      29.848  32.026  85.634  0.00  0.00    +0.000 A 
ATOM      5  C   UNL     1      28.529  32.168  85.204  0.00  0.00    +0.000 A 
ATOM      6  C   UNL     1      27.675  31.092  85.186  0.00  0.00    +0.000 A 
ATOM      7  C   UNL     1      28.158  29.869  85.605  0.00  0.00    +0.000 A 
ATOM      8  C   UNL     1      29.458  29.699  86.035  0.00  0.00    +0.000 A 
ATOM      9  C   UNL     1      30.303  30.801  86.046  0.00  0.00    +0.000 A 
BRANCH   4  10
ATOM     10  C   UNL     1      30.741  33.170  85.643  0.00  0.00    +0.000 C 
ATOM     11  O   UNL     1      30.526  34.088  86.490  0.00  0.00    +0.000 OA
BRANCH  10  13
ATOM     12  C   UNL     1      33.111  33.599  85.286  0.00  0.00    +0.000 C 
ATOM     13  O   UNL     1      31.814  33.310  84.778  0.00  0.00    +0.000 OA
ENDBRANCH  10  13
ENDBRANCH   4  10
ENDBRANCH   1   9
BRANCH   2  14
ATOM     14  C   UNL     1      33.378  30.791  88.374  0.00  0.00    +0.000 C 
ATOM     15  C   UNL     1      34.326  30.335  87.587  0.00  0.00    +0.000 C 
BRANCH  15  16
ATOM     16  C   UNL     1      35.718  30.193  88.020  0.00  0.00    +0.000 A 
ATOM     17  C   UNL     1      36.098  29.008  88.604  0.00  0.00    +0.000 A 
ATOM     18  C   UNL     1      37.381  28.777  89.036  0.00  0.00    +0.000 A 
ATOM     19  C   UNL     1      38.306  29.783  88.868  0.00  0.00    +0.000 A 
ATOM     20  C   UNL     1      37.937  30.971  88.286  0.00  0.00    +0.000 A 
ATOM     21  C   UNL     1      36.654  31.176  87.865  0.00  0.00    +0.000 A 
BRANCH  19  22
ATOM     22  C   UNL     1      39.703  29.594  89.313  0.00  0.00    +0.000 C 
ATOM     23  C   UNL     1      40.401  28.574  88.420  0.00  0.00    +0.000 C 
ATOM     24  C   UNL     1      39.696  28.954  90.710  0.00  0.00    +0.000 C 
ENDBRANCH  19  22
ENDBRANCH  15  16
BRANCH  14  25
ATOM     25  C   UNL     1      33.678  31.168  89.721  0.00  0.00    +0.000 C 
ATOM     26  N   UNL     1      33.903  31.487  90.835  0.00  0.00    +0.000 NA
ENDBRANCH  14  25
ENDBRANCH   2  14
TORSDOF 7
ENDMDL
MODEL 9
REMARK VINA RESULT:      -6.5      2.520      3.706
REMARK  Name = 
REMARK  7 active torsions:
REMARK  status: ('A' for Active; 'I' for Inactive)
REMARK    1  A    between atoms: O_2  and  C_3
REMARK    2  A    between atoms: C_3  and  C_5
REMARK    3  A    between atoms: C_10  and  N_11
REMARK    4  A    between atoms: C_12  and  C_14
REMARK    5  A    between atoms: C_14  and  C_15
REMARK    6  A    between atoms: C_17  and  C_18
REMARK    7  A    between atoms: C_21  and  C_22
REMARK                            x       y       z     vdW  Elec       q    Type
REMARK                         _______ _______ _______ _____ _____    ______ ____
ROOT
ATOM      1  N   UNL     1      53.663  -2.856  79.259  0.00  0.00    +0.000 NA
ATOM      2  C   UNL     1      52.463  -2.665  79.989  0.00  0.00    +0.000 C 
ATOM      3  O   UNL     1      51.826  -3.718  80.345  0.00  0.00    +0.000 OA
ENDROOT
BRANCH   1   9
ATOM      4  C   UNL     1      55.212  -4.683  79.616  0.00  0.00    +0.000 A 
ATOM      5  C   UNL     1      55.691  -5.956  79.311  0.00  0.00    +0.000 A 
ATOM      6  C   UNL     1      55.099  -6.714  78.330  0.00  0.00    +0.000 A 
ATOM      7  C   UNL     1      54.018  -6.182  77.657  0.00  0.00    +0.000 A 
ATOM      8  C   UNL     1      53.523  -4.925  77.938  0.00  0.00    +0.000 A 
ATOM      9  C   UNL     1      54.139  -4.175  78.933  0.00  0.00    +0.000 A 
BRANCH   4  10
ATOM     10  C   UNL     1      55.845  -3.894  80.657  0.00  0.00    +0.000 C 
ATOM     11  O   UNL     1      56.995  -3.413  80.427  0.00  0.00    +0.000 OA
BRANCH  10  13
ATOM     12  C   UNL     1      55.625  -2.482  82.628  0.00  0.00    +0.000 C 
ATOM     13  O   UNL     1      55.259  -3.639  81.886  0.00  0.00    +0.000 OA
ENDBRANCH  10  13
ENDBRANCH   4  10
ENDBRANCH   1   9
BRANCH   2  14
ATOM     14  C   UNL     1      51.914  -1.365  80.355  0.00  0.00    +0.000 C 
ATOM     15  C   UNL     1      50.924  -0.877  79.642  0.00  0.00    +0.000 C 
BRANCH  15  16
ATOM     16  C   UNL     1      50.304   0.419  79.927  0.00  0.00    +0.000 A 
ATOM     17  C   UNL     1      51.010   1.558  79.620  0.00  0.00    +0.000 A 
ATOM     18  C   UNL     1      50.511   2.818  79.842  0.00  0.00    +0.000 A 
ATOM     19  C   UNL     1      49.254   2.922  80.396  0.00  0.00    +0.000 A 
ATOM     20  C   UNL     1      48.540   1.791  80.708  0.00  0.00    +0.000 A 
ATOM     21  C   UNL     1      49.059   0.550  80.476  0.00  0.00    +0.000 A 
BRANCH  19  22
ATOM     22  C   UNL     1      48.663   4.251  80.660  0.00  0.00    +0.000 C 
ATOM     23  C   UNL     1      49.706   5.169  81.289  0.00  0.00    +0.000 C 
ATOM     24  C   UNL     1      47.572   4.105  81.731  0.00  0.00    +0.000 C 
ENDBRANCH  19  22
ENDBRANCH  15  16
BRANCH  14  25
ATOM     25  C   UNL     1      52.441  -0.624  81.460  0.00  0.00    +0.000 C 
ATOM     26  N   UNL     1      52.895  -0.008  82.359  0.00  0.00    +0.000 NA
ENDBRANCH  14  25
ENDBRANCH   2  14
TORSDOF 7
ENDMDL
